! enable tuning parameters settings as for the fourth full smoke test

 zmconv_microp = .true.
 zmconv_clos_dyn_adj = .true.
 zmconv_MCSP_heat_coeff = 0.3
 zmconv_tpert_fix = .true.
 zmconv_ke = 2.5e-6
 p3_wbf_coeff = 1.0

 sscav_tuning = .false.

 !LWCF tuning
 nucleate_ice_subgrid   =  1.35
 p3_mincdnc             =  20.D6
 dust_emis_fact         =  11.8D0
 seasalt_emis_scale     =  0.55D0

